Material: main / Y3Al5O12 / Franta
Optical constants. D. Franta, M.-G. Mureșan. Wide spectral range optical characterization of yttrium aluminum garnet (YAG) single crystal by universal dispersion model, Opt. Mater. Express 11, 3930–3945 (2021) (Numerical data kindly provided by Daniel Franta)
Comments: Single-crystal Y3Al5O12; Heterogenous data processing combining ellipsometric and spectrophotometric measurements with refractive index data (Zelmon et al. 1998); 2 mm thick plate; Room temperature.
wavelength (um)	n	k
0.119914	2.12629111265	1.01415859714
0.122425	2.23049593706	0.989644168363
0.124988	2.17198844518	0.946455013426
0.127606	2.37119399732	0.918188492968
0.130278	2.28183755956	0.87021698089
0.133006	2.35340875634	0.868443573398
0.135791	2.37465145309	0.802372419415
0.138634	2.42436659529	0.790583157592
0.141537	2.46194599007	0.707803396051
0.144501	2.48592884858	0.675646942251
0.147526	2.55416131643	0.605645438831
0.150616	2.56593087152	0.493152167655
0.153769	2.60585201271	0.390814461183
0.156989	2.5219286459	0.284773317255
0.160277	2.46805222826	0.254143894596
0.163633	2.46557878677	0.221781090689
0.167059	2.44763165351	0.144728878284
0.170557	2.39450636664	0.0849319291312
0.174129	2.3391779415	0.0484637792327
0.177775	2.28848198806	0.024796871148
0.181497	2.24212589709	0.00952386406413
0.185298	2.19996454484	0.00154870887312
0.189178	2.16452713015	7.02328848153e-05
0.193139	2.13614312139	5.26254804888e-06
0.197183	2.11203912238	2.587262436e-06
0.201312	2.09097985829	2.5465003166e-06
0.205527	2.0722853719	2.56200470563e-06
0.209831	2.05550935492	2.57216063386e-06
0.214225	2.0403325229	2.52616583496e-06
0.218711	2.0265144688	2.39899178723e-06
0.22329	2.01386784358	2.24599473619e-06
0.227966	2.00224289922	2.11393755084e-06
0.232739	1.99151747587	1.98649916983e-06
0.237613	1.98159024315	1.82526639079e-06
0.242588	1.97237601577	1.61530015825e-06
0.247668	1.96380238881	1.36937460775e-06
0.252854	1.95580723342	1.11236393007e-06
0.258149	1.94833678863	8.68232542333e-07
0.263554	1.94134418529	6.5425651068e-07
0.269073	1.93478828944	4.79992645863e-07
0.274707	1.92863278471	3.48367814252e-07
0.280459	1.92284543602	2.57270366001e-07
0.286332	1.917397492	2.00912660431e-07
0.292328	1.91226319512	1.70958768254e-07
0.298449	1.90741937636	1.57773105762e-07
0.304698	1.90284511757	1.51995466716e-07
0.311078	1.89852146861	1.46190627914e-07
0.317592	1.89443120921	1.36000404503e-07
0.324242	1.89055864685	1.20339376019e-07
0.331032	1.88688944395	1.00629405234e-07
0.337964	1.88341046861	7.95092172361e-08
0.34504	1.88010966495	5.95978532691e-08
0.352265	1.87697594007	4.27146006565e-08
0.359642	1.87399906525	2.96484824917e-08
0.367172	1.87116958961	2.03298794573e-08
0.374861	1.86847876447	1.41738520433e-08
0.38271	1.86591847689	1.04095995631e-08
0.390724	1.863481191	8.30468553295e-09
0.398905	1.86115989606	7.27299914735e-09
0.407258	1.85894806017	6.89741504257e-09
0.415786	1.85683958896	6.90671682125e-09
0.424492	1.85482878862	7.13727110201e-09
0.433381	1.85291033267	7.49663607298e-09
0.442456	1.85107923208	7.93575133598e-09
0.451721	1.84933080831	8.43029597717e-09
0.461179	1.847660669	8.96931180595e-09
0.470836	1.84606468586	9.54875154878e-09
0.480695	1.8445389747	1.01680345414e-08
0.490761	1.8430798772	1.08283009874e-08
0.501037	1.84168394437	1.1531567467e-08
0.511529	1.84034792139	1.2280336702e-08
0.52224	1.83906873379	1.30774267189e-08
0.533175	1.83784347476	1.3925902258e-08
0.54434	1.83666939353	1.48290524795e-08
0.555738	1.83554388468	1.57903894596e-08
0.567375	1.83446447827	1.68136559783e-08
0.579255	1.83342883082	1.79028377238e-08
0.591384	1.83243471684	1.90621779514e-08
0.603768	1.83148002114	2.02961936874e-08
0.61641	1.83056273161	2.16096932681e-08
0.629318	1.82968093258	2.3007795139e-08
0.642495	1.82883279858	2.44959478572e-08
0.655949	1.82801658859	2.60799514909e-08
0.669684	1.82723064068	2.77659803419e-08
0.683707	1.82647336695	2.95606072231e-08
0.698023	1.8257432489	3.14708292627e-08
0.712639	1.82503883297	3.35040954255e-08
0.727562	1.82435872647	3.5668335821e-08
0.742797	1.82370159366	3.7971992926e-08
0.75835	1.82306615219	4.04240548715e-08
0.77423	1.82245116961	4.30340908945e-08
0.790442	1.82185546014	4.58122890843e-08
0.806993	1.82127788165	4.8769496682e-08
0.823891	1.82071733274	5.19172629554e-08
0.841143	1.82017275003	5.52678849229e-08
0.858756	1.81964310549	5.88344561035e-08
0.876738	1.81912740405	6.26309184549e-08
0.895097	1.81862468116	6.66721177585e-08
0.913839	1.81813400059	7.09738626597e-08
0.932975	1.81765445224	7.5552987591e-08
0.952511	1.81718515007	8.04274199578e-08
0.972456	1.81672523013	8.56162516423e-08
0.992819	1.81627384863	9.11398153866e-08
1.01361	1.81583018009	9.70197662356e-08
1.03483	1.81539341554	1.0327916835e-07
1.0565	1.81496276081	1.099425877e-07
1.07862	1.81453743484	1.1703619096e-07
1.10121	1.814116668	1.24587850989e-07
1.12427	1.81369970052	1.32627259459e-07
1.14781	1.81328578091	1.41186047091e-07
1.17184	1.81287416439	1.50297911943e-07
1.19638	1.8124641114	1.59998756498e-07
1.22143	1.81205488607	1.70326833952e-07
1.24701	1.81164575474	1.81322904557e-07
1.27312	1.81123598446	1.93030402632e-07
1.29978	1.81082484156	2.05495614967e-07
1.327	1.81041159011	2.18767871563e-07
1.35478	1.80999549051	2.3289974952e-07
1.38315	1.80957579796	2.47947291008e-07
1.41211	1.80915176098	2.63970236432e-07
1.44168	1.80872261991	2.8103227386e-07
1.47187	1.80828760537	2.99201305912e-07
1.50269	1.80784593669	3.18549735469e-07
1.53416	1.80739682037	3.39154771575e-07
1.56628	1.80693944843	3.61098757107e-07
1.59908	1.80647299677	3.8446951979e-07
1.63256	1.80599662348	4.09360748504e-07
1.66675	1.80550946709	4.35872396736e-07
1.70165	1.80501064479	4.64111115395e-07
1.73728	1.80449925054	4.94190717232e-07
1.77366	1.80397435322	5.26232675516e-07
1.8108	1.80343499457	5.60366659688e-07
1.84871	1.80288018717	5.96731111014e-07
1.88743	1.80230891227	6.35473861623e-07
1.92695	1.80172011756	6.76752800509e-07
1.9673	1.80111271484	7.20736590617e-07
2.00849	1.80048557758	7.67605441245e-07
2.05055	1.7998375383	8.17551940855e-07
2.09349	1.79916738594	8.70781955415e-07
2.13732	1.79847386304	9.27515598348e-07
2.18208	1.79775566273	9.87988278639e-07
2.22777	1.79701142559	1.05245183432e-06
2.27442	1.79623973637	1.12117575944e-06
2.32204	1.79543912052	1.19444853353e-06
2.37066	1.79460804038	1.2725790637e-06
2.4203	1.79374489144	1.35589825047e-06
2.47098	1.79284799799	1.44476068994e-06
2.52272	1.79191560884	1.53954652667e-06
2.57555	1.79094589254	1.64066347275e-06
2.62948	1.78993693242	1.74854901155e-06
2.68454	1.78888672125	1.86367280593e-06
2.74075	1.78779315542	1.98653933439e-06
2.79814	1.78665402912	2.11769078066e-06
2.85673	1.78546702741	2.25771020745e-06
2.91655	1.78422971961	2.40722504718e-06
2.97762	1.78293955149	2.56691094959e-06
3.03997	1.7815938372	2.73749603031e-06
3.10363	1.78018975073	2.91976557156e-06
3.16862	1.77872431625	3.11456723502e-06
3.23497	1.77719439798	3.32281685447e-06
3.30271	1.77559668917	3.54550488806e-06
3.37186	1.77392769986	3.78370362337e-06
3.44247	1.77218374384	4.0385752487e-06
3.51455	1.77036092403	4.311381084e-06
3.58814	1.76845511624	4.60349496996e-06
3.66328	1.76646195097	4.91645517446e-06
3.73999	1.7643767919	5.25234090877e-06
3.8183	1.7621947085	5.61612160718e-06
3.89825	1.7599104418	6.02629857255e-06
3.97988	1.7575183682	6.54830646887e-06
4.06322	1.75501249504	7.36146102487e-06
4.1483	1.75238654469	8.81945892866e-06
4.23516	1.74963412567	1.13743263983e-05
4.32384	1.7467487947	1.52479655521e-05
4.41438	1.74372366148	2.00253759072e-05
4.50682	1.74055044848	2.50042073769e-05
4.60119	1.73722029931	3.11058173973e-05
4.69753	1.73372748477	3.73840602429e-05
4.7959	1.73005921977	3.61681607773e-05
4.89632	1.72619400123	3.19400601028e-05
4.99885	1.72212493309	3.52926534836e-05
5.10352	1.71784708068	4.21648206972e-05
5.21039	1.71334288199	4.84115831791e-05
5.31949	1.70859554411	5.77653928917e-05
5.43088	1.70359128898	7.0573861732e-05
5.5446	1.6983103587	8.46301012027e-05
5.6607	1.69272762731	0.000101501704986
5.77923	1.68681348344	0.000126890699198
5.90024	1.68054897798	0.000172295774353
6.02379	1.67383418959	0.000251632235998
6.14993	1.66669310473	0.000634385318405
6.2787	1.659638057	0.00102787519462
6.41017	1.6520420252	0.00130391263061
6.5444	1.64403994857	0.00140469526927
6.68144	1.63545171682	0.0015787981499
6.82134	1.62638850954	0.00184662570998
6.96418	1.61694578887	0.00197954545701
7.11	1.60667567051	0.00190677038782
7.25888	1.59561894826	0.00198706625318
7.41088	1.58389756776	0.00205254266617
7.56606	1.57129159056	0.0020325840384
7.72449	1.55767628757	0.00203259084335
7.88624	1.54301948062	0.00209418623767
8.05137	1.52724924557	0.00218752116761
8.21996	1.51023010084	0.00227933850601
8.39208	1.49178769749	0.00235522541809
8.56781	1.47171837015	0.00241239616541
8.74722	1.44978214426	0.00245244544868
8.93038	1.42568918097	0.00247884435553
9.11738	1.39908118828	0.00249648096693
9.30829	1.36950411204	0.00251178481614
9.5032	1.33636348305	0.00253344277588
9.70219	1.29883952216	0.00257904927647
9.90535	1.2557060923	0.00274142372779
10.1128	1.20507697458	0.00356543439145
10.3245	1.14478839631	0.00696648469576
10.5407	1.07447114275	0.0160266559985
10.7614	0.995943557842	0.0306080187426
10.9868	0.905100894796	0.0443920386024
11.2168	0.782263357553	0.0544607297965
11.4517	0.588347340847	0.076737914321
11.6915	0.238688125635	0.243624750788
11.9363	0.127664769086	0.675842026757
12.1862	0.129249585608	1.03649913951
12.4414	0.171373151076	1.49733536216
12.7019	1.05709055913	2.59187430713
12.9679	1.11124742009	0.677223379633
13.2394	0.370458387717	1.294408699
13.5167	0.347229729448	2.07156405333
13.7997	1.25491506602	3.41945670912
14.0887	1.72910520765	1.24984241288
14.3837	1.43245176786	4.01546514889
14.6849	4.23515825278	0.732648799046
14.9924	2.91740810595	0.217099319326
15.3063	2.38572456607	0.13273055211
15.6268	2.04597991623	0.103255791891
15.954	1.77330841295	0.0927308346735
16.2881	1.51552442435	0.0944676172004
16.6291	1.22859977335	0.113073278354
16.9773	0.820656164485	0.19337469924
17.3328	0.336210063214	0.852276360583
17.6958	1.51132237166	1.76009008741
18.0663	0.98779256957	0.388782073766
18.4446	0.273509057599	0.864646779107
18.8308	0.184984171945	1.39954375154
19.2252	0.229666850869	1.87140233075
19.6277	0.843327936132	2.21600637002
20.0387	0.201822167268	1.99958697092
20.4583	0.13268266776	2.61568118401
20.8867	0.168347297294	3.21906150843
21.3241	0.263527256012	4.00011434236
21.7706	0.652941951783	5.46426242931
22.2264	5.0601902135	7.06429940578
22.6918	3.71158272862	2.29078856804
23.167	5.01711544879	5.74872093057
23.6521	5.63550518286	1.06999262666
24.1474	3.92530690508	0.515538469911
24.653	2.38907415418	0.688972904633
25.1692	1.92273177217	4.13435006402
25.6963	4.93110958453	3.05742831799
26.2343	2.53946417942	1.15981865924
26.7837	7.54516349998	2.88206748416
27.3445	4.77937178774	0.29645585251
27.9171	3.88738884733	0.187378983403
28.5016	3.25322799254	0.202493860185
29.0985	2.4708206706	0.350119222699
29.7078	1.08549277041	1.81851882289
30.3298	4.53824848175	6.2844589399
30.9649	5.47908663293	0.371435904262
31.6133	4.24368877595	0.10471619771
32.2753	3.61724794186	0.0855437250602
32.9511	3.00053251507	0.15124650982
33.6411	1.74040627252	0.750858408496
34.3455	3.660865758	5.05641421507
35.0647	5.41622619827	0.478666389701
35.7989	4.43326411495	0.120785818736
36.5485	4.03128516046	0.0562318935619
37.3138	3.78879208338	0.0342774695185
38.0952	3.611485528	0.0249654280369
38.8929	3.46496397464	0.021094877028
39.7073	3.33165220527	0.0205063708957
40.5387	3.19870885234	0.0229226496525
41.3876	3.05167720415	0.0296658052294
42.2542	2.86555923863	0.0455996595624
43.139	2.57681646141	0.0901937234811
44.0423	1.92502024897	0.311110732042
44.9645	1.50000052186	2.96566261312
45.906	5.18024157806	0.860790857951
46.8673	3.9929674294	0.151909813209
47.8487	3.58880320974	0.0690932311702
48.8506	3.35619812428	0.0464036730928
49.8735	3.17886191496	0.0402388168673
50.9178	3.01615995821	0.0424407753643
51.984	2.84342637499	0.0526382389827
53.0725	2.63240573474	0.0764892866009
54.1839	2.32120258981	0.140418549245
55.3184	1.61315315609	0.635177877528
56.4768	2.47490718305	0.188980681609
57.6594	0.813349516115	0.862538514018
58.8667	0.74194034814	2.98371778361
60.0994	2.36266248625	5.95861884827
61.3578	7.69829032078	2.41580790338
62.6426	5.76550402863	0.544907888885
63.9543	4.97960857951	0.245247260373
65.2935	4.57439180299	0.143561833614
66.6607	4.32436997374	0.0961865565963
68.0565	4.15256677751	0.0699530010192
69.4816	4.02565586907	0.053721464697
70.9365	3.92667464128	0.0428302792103
72.4219	3.84580864332	0.0350053102245
73.9384	3.77650159866	0.0289802136197
75.4866	3.713161947	0.0239290036824
77.0673	3.64815235407	0.0191847411861
78.681	3.55958243246	0.0146154788344
80.3285	3.27721292734	0.143684680708
82.0106	3.92616448085	0.357706704492
83.7278	3.73297633743	0.0522495836198
85.4811	3.65207242783	0.035113858794
87.271	3.608640371	0.0291850989832
89.0984	3.57772737867	0.025969998045
90.9641	3.55313453469	0.0238646186352
92.8688	3.53249447211	0.022330622438
94.8134	3.51457756363	0.0211326826335
96.7988	3.49875653633	0.0201491018403
98.8257	3.48458714343	0.0193102521824
100.895	3.47177434235	0.0185729403262
103.008	3.46010318655	0.0179089421498
105.165	3.44941017247	0.0172991130944
107.367	3.43956676298	0.0167301335225
109.615	3.43046930146	0.0161925863046
111.91	3.42203250649	0.0156797566656
114.254	3.41418508667	0.0151868474519
116.646	3.40686667132	0.0147104458784
119.089	3.40002559215	0.0142481495035
121.582	3.39361723485	0.0137982971049
124.128	3.38760278503	0.0133597711269
126.727	3.38194825421	0.012931850485
129.381	3.37662371013	0.0125140997435
132.09	3.37160265898	0.0121062851638
134.856	3.36686154325	0.011708310963
137.68	3.36237932882	0.0113201709989
140.563	3.35813716216	0.0109419123527
143.506	3.35411808332	0.0105736081611
146.511	3.35030678394	0.0102153376656
149.579	3.34668940189	0.00986717190513
152.711	3.34325334607	0.00952916381232
155.909	3.33998714621	0.0092013417326
159.173	3.33688032359	0.00888370558506
162.506	3.33392327932	0.00857622503928
165.909	3.33110719753	0.0082788392085
169.383	3.32842396115	0.00799145745902
172.93	3.32586607852	0.00771396101748
176.551	3.32342661919	0.00744620512354
180.248	3.32109915773	0.00718802152918
184.022	3.31887772432	0.00693922119022
187.875	3.31675676128	0.0066995970309
191.809	3.3147310847	0.00646892669196
195.826	3.31279585058	0.00624697519568
199.926	3.31094652473	0.00603349748077
204.113	3.3091788561	0.00582824077468
208.387	3.30748885305	0.0056309467831
212.75	3.30587276213	0.00544135368573
217.205	3.30432704915	0.00525919793461
221.753	3.3028483822	0.00508421585671
226.397	3.30143361639	0.00491614506656
231.137	3.3000797801	0.00475472569777
235.977	3.29878406264	0.00459970146381
240.918	3.29754380294	0.00445082056026
245.963	3.29635647944	0.00430783642085
251.113	3.29521970081	0.00417050834025
256.372	3.29413119751	0.00403860197622
261.74	3.29308881408	0.00391188974349
267.221	3.2920905021	0.00379015111111
272.816	3.29113431369	0.00367317281454
278.529	3.29021839554	0.00356074899275
284.361	3.28934098344	0.00345268126003
290.315	3.28850039716	0.00334877872138
296.394	3.28769503579	0.00324885793952
302.601	3.28692337333	0.00315274286075
308.937	3.28618395466	0.00306026470638
315.406	3.28547539176	0.00297126183544
322.01	3.28479636016	0.002885579584
328.753	3.28414559568	0.00280307008567
335.637	3.28352189132	0.00272359207739
342.665	3.28292409439	0.00264701069401
349.84	3.28235110376	0.00257319725478
357.166	3.28180186738	0.00250202904451
364.645	3.2812753798	0.00243338909148
372.28	3.28077067998	0.0023671659444
380.075	3.28028684912	0.0023032534497
388.034	3.27982300866	0.00224155053094
396.159	3.27937831839	0.00218196097114
